ROMS/TOMS Framework: March 20, 2018
===================

Copyright (c) 2002-2018 The ROMS/TOMS Group
  Licensed under a MIT/X style license
  See License_ROMS.txt

svn: $HeadURL: https://www.myroms.org/svn/src/trunk/ROMS/Version $
svn: $LastChangedBy: arango $
svn: $LastChangedRevision: 900 $
svn: $LastChangedDate: 2018-03-21 04:23:08 +0100 (Wed, 21 Mar 2018) $